THE ADVENTURES OF TELEMACHUS The Son of ULYSSES.

Translated from the French.

LONDON: Printed for Awnsham and John Churchil, at the Black Swan in
Paternoster Row, MDCXCIX.

PREFACE.
THE Original of this Fiece is attributed by the Public Voice to the
Archbishop of Cambray: And certainly it is not unworthy a Person who was
entrusted with the Education of Princes. That Virtue, Wisdom, and Ardent Desire
to procure the Good of Mankind, which are interwoven with the following Story,
show the fitness of the Author for so great a Trust. The Reason he had to
involve his Instructions in Fable, will be obvious to all who shall consider
that as he wrote for Princes, who seldom fail to reject all Precepts that are
not gilded with Delight; so he Lives under a Monarchy that will not suffer
open and undisguised Truth. His Style is Poetical, and Copied from Homer; or
rather from Monsieur de la Valterie's Excellent Version of that Divine Poet,
which is esteemed a Masterpiece in the Kind. How far this Translation has
imitated the Perfections of these Originals, is submitted to the Judgment of
Others.

Lately Printed for A. and J. Churchil,
THE Historical Library of Diodorus the Sicilian. In fifteen Books. The first
Five, contain the Antiquities of Egypt, Asia, Africa, Greece, the Islands, and
Europe. The last Ten, an historical Account of the Affairs of the Persians,
Grecians, Macedonians, and other Parts of the World. To which are added, The
fragments of Diodorus that are found in the Bibliotheca of Photius: Together
with those Published by H. Valesius, L. Rhodomannus, and F. Ursinus. Made
English by G. Booth, of the City of Chester, Esquire in Folio.

THE ADVENTURES OF TELEMACHUS The Son of ULYSSES.
CALYPSO continued Disconsolate for the departure of Ulysses: Her Grief was so
violent, that she thought her self unhappy in being Immortal: Her Grotto was no
more heard ecchoing to her tuneful Voice: The Nymphs that served her, durst not
venture to speak to her: She often walked alone on the Beach, which was covered
with a charming mixture of Green and Flowers quite round the Island: But these
beautiful Walks were so far from asswaging her Grief, that they served only to
awaken the killing Thoughts of Ulysses, whose Company she had so often enjoyed
in those Places: Sometimes she stood still and wept, watering the Banks of the
Sea with her Tears, and always turning her Eyes to that side where she had last
seen Ulysses his Ship plowing through the Waves; when on a sudden she
perceived the broken pieces of a Vessel that was just then split upon the
Rocks, the Oars and Seats of the Rowers scattered here and there upon the
Sands, the Mast, Rudder and Cables floating near the Shore.

Immediately after this, she discovered two Men at a distance, one of them
appearing to be Aged, and the other, tho Young, resembling Ulysses; the same
sweetness and dignity in his Looks; the same noble Mien and majestic Port. The
Goddess presently knew him to be Telemachus, the Son of that Hero. But though the
Deities of this Order far surpass all Men in Knowledge, yet she could not
discover who was the yenerable Person that accompanied Telemachus. For the
superior Gods conceal from the inferior whatever they please; and Minerva, who
in the shape of Mentor, accompanied Telemachus, would not be known to Calypso.

In the mean time Calypso overjoyed at this Shipwreck, that had brought the Son
of Ulysses, and so like his Father, into her Island, advanced toward him; and
without seeming to know who he was; whence had you, said she, the Confidence to
enter my Island? Know, young Stranger, that there are Punishments for all those
that come within my Empire. Under such menacing Language she endeavored to
cover the joy of her Heart, which for all this, appeared in her Face.

Telemachus answered, O whoever you are, whether a Mortal or a Goddess ((...)
by your Looks you should be something Divine) can you be insensible of a Son's
Misfortune, who seeking his Father, and committing his Life to the mercy of the
Winds and Seas, has seen his Ship dashed in pieces against your Rocks? Who, I
pray, replied the Goddess, is that Father you seek? He is called Ulysses, said
Telemachus; and is one of those Kings, who after a Siege of ten Years,
destroyed the famous City of Troy. His Name is celebrated in all Parts of
Greece and Asia for his Valor in Fight, and much more for the Wisdom of his
Counsels: But now he wanders in unknown Seas, and has past most astonishing
Dangers. His Country seems to fly from him: His Wife Penelope, and I, who am
his Son, have lost all hopes of seeing him again. I run the same Hazards he has
done, to learn where he is; but what do I say! It may be he is now buried in
the profound Abyss of the Sea. O Goddess! Pity our Misfortunes; and if you know
what the Fates have done, either to save or destroy Ulysses, disdain not to
instruct his Son Telemachus.

Calypso filled with Amazement and Compassion to find so much Wisdom and
Eloquence in so much Youth, could not satiate her Eyes with looking on him, and
stood for some time silent. At last she said to him; we will inform you O
Telemachus, what has happened to your Father; but the Relation is long, and
it is more than time to repose after all the Fatigues you have endured. Come
into my Habitation, and I will receive you as my Son: Come, you shall be my
Consolation in this Solitude, and I will make you happy, if you know how to be
so.

Telemachus followed the Goddess, who was surrounded by a Crowd of young
Nymphs, and surpassed them all in Stature, as a well grown Oak of theForest
raises his losty Head above the rest of the Trees. He admired the luster of her
Beauty, the rich Purple of her long and floating Robes, her Hair carelessly but
gracefully tied behind her Neck, the Fire that darted from her Eyes, and the
sweetness that tempered this Vivacity. Mentor, with a modest Silence, and
looking toward the Ground, followed Telemachus. Arriving at the entrance of
Calypso's Grotto, Telemachus was surprised to see whatever might charm the Eye,
covered under the appearance of rural Simplicity. There was neither Gold nor
Silver to be seen, no Marble nor Pillars of Stone, no Painting nor Statues. The
Grotto was cut into diverse Vaults within the Rock, which were incrusted with
Shells and Rockwork. The Tapistry was a young Vine, extending its tender
Branches equally on every side. The gentle Zephyrs preserved a refreshing
coolness in this Place, secure from the scorching Heat of the Sun. Springs of
pure Water passed sweetly whispering through the Meadows that were painted with
Violets and Amaranthus, and formed diverse natural Baths as clear and as bright
as Crystal. A thousand Flowers enameled the green Turf that surrounded the
Grotto. There was an entire Wood of those Trees, that bear golden Apples, and
put forth Flowers in every Season, yielding the sweetest of all Perfumes. This
Wood seemed to Crown the beautiful Meadows, and made an artificial Night, which
the Beams of the Sun could not penetrate. Here nothing was ever heard, but the
singing of Birds, or the noise of Waters impetuously precipitating from the
Rocks, and gliding away through the Fields.

The Grotto of the Goddess was on the descent of a Hill, from whence she had a
view of the Sea, one while clear and smooth as Glass, at another time vainly
angry with the Rocks, swelling into Waves, and breaking to pieces against them:
From another side she might see a River, containing many little Islands
bordered with flowering Lime-Trees, and lofty Poplars, that reared their
stately Heads to the Clouds. The several Channels that formed these Islands,
seemed to play and sport between the Banks, some rolling their Waters with
rapidity, others more gently and quietly; and others after many windings,
returning as it were to the Spring from whence they came, seemed unwilling to
leave the charming Place. One might see afar off many Hills and Mountains
hiding their Heads in the Clouds, and forming such odd and unusual Figures as
were very agreeable to the Eye. The Hills that stood at less distance were
covered with Vines, the Grapes of which surpassed the richest Purple in Color,
and could not conceal themselves under the Leaves of the Trees that bowed under
the weight of their Fruit. The Fig Tree, the Olive and the Pomgranat, with all
Kinds of other Trees covered the rest of the Country, and made it one entire
Garden.

Calypso having showed Telemachus all these Beauties of Nature, said to him,
it is time for you to repose, and to change your wet Garments; after which we
will see one another again, and I will tell you some Things that shall affect
your Heart. Having said this, she caused them both to enter into the most
private and retired part of a Grotto, which stood near to that in which she
dwelt. Her Nymphs had taken care to light a Fire of Cedar, which filled the
Apartment with an agreeable scent, and had left all necessary Apparel for the
two Strangers. Telemachus finding that the Goddess had designed him a Tunick of
the finest Wool, and white as Snow, with a Vest of Purple, richly embroidered
with Gold, was, like a young Man, infinitely pleased with this Magnificence;
which Mentor perceiving, he said with a grave and severe Voice, Are these, O
Telemachus, the Thoughts that ought to possess the Heart of the Son of Ulysses?
Think rather to maintain the Reputation your Father has acquired, and to
overcome the Persecutions of Fortune. A young Man who loves to dress like a
Woman, is unworthy of Wisdom and Glory. The Heart that knows not how to suffer
Pain and despise Pleasure, is unfit to possess those glorious Advantages.



Telemachus with a deep Sigh answered, May the Gods destroy me rather than
suffer me to fall under the power of effeminate Pleasures. No! the Son of
Ulysses shall never be subdued by the Charms of a soft and unworthy Life: But
what Favor of Heaven has brought us to this Goddess, or to this Mortal, who
has received us with so much Goodness?

Tremble, replied Mentor, least in the end she overwhelm you with Evil; be more
afraid of her insinuating Charms, than of the Rocks that split your Ship; Death
and Shipwreck are less dreadful than the Pleasures that attack Virtue; be upon
your Guard, and beware of believing any thing she shall say to you: Youth is
full of Presumption and Arrogance, though nothing in the World be so frail; it
sears nothing, and vainly relies upon its own Strength; believing all Things
with the utmost Levity, and without any Precaution. Beware of harkening to the
soft and flattering Words of Calypso, which will slide into your Heart with
Pleasure; fear the concealed Poison, distrust your self, and determine nothing
without my Counsel.

After this they returned to Calypso, who waited for them; and presently her
Nymphs, dressed in white, with their Hair tied up, brought in a plain but
exquisite Repast, consisting of Birds that they had taken with Nets, and of
Venison that they had killed with their Bows. The Wine was sweeter than Nectar,
and flowed from Jarrs of Silver into Golden Bowels, that were crowned with
Flowers. All sorts of Fruit that the Spring promises, and Autumn ripens in
profusion, were brought in Baskets, and four young Nymphs began to Sing. First,
they sung the War of the Gods against the Giants, then the Loves of Jupiter and
Semele; the Birth of Bacchus, and his Education under the care of old Silenus;
the Race of Atalanta and Hypomenes, who was overcome by means of the Golden
Apples that came from the Garden of the Hesperides. Last of all they Sung the
War of Troy, and exalted the Valor and Wisdom of Ulysses to the Heavens. The
chief of the Nymphs, whose Name was Leucothoe, accompanied their sweet voices
with her Lute. When Telemachus heard the Name of his Father, the Tears that
flowed down his Cheeks, gave a new luster to his Beauty. But Calypso perceiving
that he could not Eat, and that he was siez'd with Grief, made a sign to the
Nymphs; and presently they began to Sing the Fight between the Centaurs and the
Lapithae, and the descent of Orpheus into Hell, to recover his dear Eurydice.

When they had eaten, the Goddess took Telemachus aside, and said to him; You
see, O Son of the Great Ulysses, with what savor I receive you into my
Habitation. Yet know, that I am Immortal, and that no Mortal can enter into
this Island without being punished for his rash attempt; nay, even your
Shipwreck should not secure you from the effects of my Indignation, if I did
not love you. Your Father had the same Happiness you now enjoy; but, alas! he
knew not how to use it. I detained him a long time in this Island, and, had he
been contented, he might have lived with me in an immortal Condition: But a
fond Passion to return to his wretched Country, made him reject all these
Advantages. You see what he has lost for the sake of the (...) of Ithaca, which
he shall never see again. He resolved to leave me; he went away, and I was
revenged by a Storm. After his Vessel had served for Sport to the Winds, it was
buried under the Waves. Make a right use of so sad an Example; for after his
Shipwreck, you can neither hope to see him again, nor ever to reign in the
Island of Ithaca. Forget this Loss, and remember you have found a Goddess, that
offers to make you happy, and to present you with a Kingdom. To these Words
Calypso added many more, to show him, how happy Ulysses had been with her. She
related his Adventures in the Cave of the Cyclops Polyphemus, and the Disaster
that befell him in the Country of Antiphates King of the Lestrigons; not
forgetting what happened to him in the Island of Circe, Daughter to the Sun; or
the Dangers he passed between Scylla and Charybdis. She represented the last
Storm that Neptune had raised against him when he left her, and desired to
persuade him, that he had perished in that Shipwreck; but suppressed his
arrival in the Island of the Pheacians.

Telemachus, who at first had too easily abandoned himself to Joy when he found
he was so well received by Calypso, now began to perceive her Artifices, and
the Wisdom of those Counsels that Mentor had given him. He answered in few
Words, O Goddess, pardon my Grief, which at present I cannot overcome; it may
be, hereafter I may have more force to relish the Fortune you offer me: Give me
leave at this time to Weep for my Father; for you know better than I, how much
he deserves to be regretted.

Calypso not daring to press him any farther on that Subject, feigned to
sympathize with him in his Affliction, and to show her self passionately
concerned for the loss of Ulysses; but that she might the better find the way
to his Heart, she asked him in what manner he had suffered Shipwreck, and by
what Adventures he was brought to her Island. The Relation of my Misfortunes,
said he, would be too long. No, no, replied she, I am in pain to know them, and
therefore give me that Satisfaction. After much solicitation she prevailed
with him, and he began thus.

I parted from Ithaca with intention to inquire of those Kings that were
returned from the Siege of Troy, what they knew concerning my Father. The
Lovers of my Mother Penelope were surprised at my departure, which I had taken
care to conceal from them, because I was well acquainted with their
Perfidiousness. But neither Menelaus, who received me with Affection at
Lacedemon, nor Nestor, whom I saw at Pilos, could inform me whether my Father
were still alive. Weary with living always in suspense and uncertainty, I
resolved to pass into Sicily, where I had heard my Father had been driven by
the Winds. But the Sage Mentor who is here present, opposed this rash Design,
representing to me on the one hand the Cyclops, who are monstrous Giants that
devour Men; on the other, the Fleet of Eneas and the Trojans, who were upon
that Coast. The Trojans, said he, are highly incensed against all the Greeks;
but they would take a singular Pleasure to shed the Blood of the Son of
Ulysses: Return therefore to Ithaca, it may be your Father, who is a Favorite
of Heaven, may arrive there as soon as you: But if the Gods have resolved his
Destructino, and he is never more to see his Country, at least it becomes you
to revenge him against his Rivals, to deliver your Mother, and to give such
proof of your Wisdom to all the People of Greece, that they may know you are as
worthy to reign, as ever Ulysses was. This Counsel was useful and honorable,
but I had not Prudence enough to follow it, and heark'ned only to my own
Passion; yet the wise Mentor loved me to such a degree, that he condescended to
accompany me in that Voyage, which I rashly undertook against his Advice.

Whilst he spoke, Calypso looked earnestly, and not without Astonishment upon
Mentor. She thought she perceived something Divine in him, but could not
disintangle the confusion of her Thoughts; which caused her to continue
apprehensive and diffident in the presence of this unknown Person. But fearing
above all Things to discover the disorder of her Mind, she desired Telemachus
to proceed, which he did in this manner.

We had the Wind favorable for some time after our departure for Sicily; but
then, a violent Storm arising, deprived us of the view of Heaven, and involved
us in the obscurity of Night: Yet by some flashes of Lightning, we perceived
other Ships exposed to the same Danger, which when we understood to be the
Fleet of AEneas, we thought them no less formidable to us than the Rocks
themselves. In that Moment I comprehended, though too late, what the Heat of
imprudent Youth had hindered me from considering before. Mentor, in the midst of
this Danger, appeared not only Resolute and Intrepid, but more cheerful than he
used to be. 'Twas he that inspired me with Resolution, and I felt the
extraordinary force of his Encouragements. He gave out all necessary Orders,
when the Pilot knew not what to do. I said to him, my dear Mentor, why did I
refufe to follow your Counsels? Am I not unhappy, to act by my own Advice, at
such an Age, as has no foresight of Futurity, no experience of things past, nor
moderation to govern the present? O! If ever we escape this Storm, I resolve to
distrust my self, as I would my most dangerous Enemy, and to believe you alone
for ever. To this Mentor answered smiling; I shall not blame you for the Fault
you have committed: It Is enough that you are sensible of it, and make it serve
you hereafter to moderate your Desires. But perhaps when the Danger is past,
Presumption will return. We may now be apprehensive, and endeavor to prevent
the worst; but if all we can do, prove ineffectual, we have nothing left but a
generous Contempt. Show your self worthy of such a Father, and let your Courage
be greater than the Dangers that threaten. I was charmed with the sweetness and
magnanimity of the wise Mentor; but I was much more surprised, when I saw with
what dexterity he brought about our Deliverance.

The Trojans were so near, that they could not fail to discover who we were, as
soon as the Light should appear; which Mentor knowing, and in that Instant
perceiving one of their Ships which was separated from the rest of the Fleet,
to be something like ours, except certain Garlands of Flowers that she carried
at her Stern, he hung up the same sorts of Flowers on the same part of our
Ship, and fastened them himself with Ribbons of the same Color with those of
the Trojans. He ordered the Rowers to bow themselves as low as the Oar would
permit, that they might not be discovered by the Enemy. In this manner we
passed through the midst of their Fleet, whilst they shouted for Joy to see us,
supposing we were their Companions, which they thought to be lost. We were
forced along with them by the violence of the Weather for a considerable time;
but at last we found means to keep a little behind, and whilst they were driven
by the Winds toward the Shore of Africa, we exerted our utmost Efforts to make
the nearest Coast of Sicily.

We arrived, as we designed; but that which we sought, proved almost as fatal
to us, as the Fleet we avoided; we found more Trojans, and consequently Enemies
to all Greeks; for old Acestes reigned in these Parts. As soon as we got
Ashore, the Inhabitants, thinking us to be either some other People of the
Island come to surprise them, or else Strangers that designed to sieze their
Country, burnt our Ship, killed our Companions, and reserved only Mentor and me
to be presented to Acestes, that we might inform him of our Designs, and whence
we came. We were brought into the Town with our Hands tied behind our Backs,
and our Death was deferred, only to make us a Spectacle to a cruel People, as
soon as they should know we were Greeks.

We were without delay presented to Acestes, who sat with a golden Scepter in
his Hand, distributing Justice, and preparing himself for a great Sacrifice. He
asked us with a severe Voice, of what Country we were, and the occasion of our
Voyage. Mentor answered, We come from the Coasts of the great Hesperia, and our
Country is not far from thence: By this means he avoided to say that we were
Greeks. But Acestes would hear no more, and taking us for Persons that
concealed some bad Design, he commanded us to be sent into a Neighboring
Forest, there to serve as Slaves to those who looked after the Cattle. This
Condition seemed more terrible to me than Death. I cried out, O King, order us
rather to suffer Death, than to be treated so unworthily: Know, that I am
Telemachus the Son of the wise Ulysses, King of the Ithacians. I seek my Father
in all parts of the World; and if I can neither find him, nor return to my
Country, nor avoid Servitude, take that Life from me, which I cannot bear.
Scarce had I pronounced these Words, when all the People in a Rage cried out,
That the Son of the cruel Ulysses must die, whose Artifices had destroyed the
City of Troy.

O Son of Ulysses, said Acestes, I cannot refuse your Blood to the Ghosts of so
many Trojans, that your Father precipitated into the Waters of the black
Cocytus. You and your Conductor shall die. At the same time an Old Man of the
Company proposed to the King, that we should be Sacrificed upon the Tomb of
Anchises. Their Blood, said he, will be grateful to the Soul of that Hero.
AEneas himself, when he hears of this Sacrifice, will be overjoyed to see how
much you love what was dearer to him than all other Things in the World. Every
One applauded this Proposition, and nothing remained but to put it in
Execution. We were led to the Tomb of Anchises, where two Altars were erected,
and the Sacred Fire kindled. The Knife was brought, we were Crowned with
Garlands, and no Composition would be accepted to save our Lives. Our Fate was
determined, when Mentor calmly desired to speak to the King; and having
received Permission, said, O Acestes, if the Misfortunes of Young Telemachus,
who never carried Arms against the Trojans, may not plead for him, at least let
your own Interest move you. The Knowledge I have acquired to predict the Will
of the Gods, informs me, That before the end of three Days, you shall be
attacked by a barbarous People, who will come down like a Torrent from the
Mountains, to destroy your City, and ravage your whole Country. Hasten to
prevent them, Arm your People, and from this moment begin to secure within
these Walls all the Riches you have in the Fields. If my Prediction be false,
you may Sacrifice us when the three Days are expired; but if on the contrary it
prove true, remember, That no One ought to take away the Lives of those, by
whom his own was preserved. Acestes was astonished at these Words, which Mentor
spoke with more assurance than he had ever found in any Man. I see, said he, O
Stranger, That the Gods who have granted you so small a share in the Favors of
Fortune, have in Recompense given you such Wisdom, as is more valuable than the
highest Prosperity. At the same time he put off the Sacrifice, and issued out
all necessary Orders with the utmost Diligence, to prevent the Attack that
Mentor had foretold. On all sides were to be seen Old Men and Women trembling
for fear, and accompanied with great numbers of Young Children, bathed in
Tears, and retiring into the City. The lowing Oxen and bleating Sheep, left the
rich Pastures and came along in confusion; but their number was too great, to
find places to contain them all. The Noise and Tumult of People pressing to get
in, was such, that no One could understand another. In this Disorder, some took
an unknown Person for their Friend, and others ran, though they knew not whether.
But the Principal Men of the City, thinking themselves wiser than the rest,
suspected Mentor to be an Impostor, who had predicted a Falsehood to save his
Life. Yet before the third Day was expired, whilst they were full of these
Imaginations, a Cloud of Dust was seen rising upon the descent of the
Neighboring Hills; an innumerable Multitude of Barbarians appeared in Arms,
and all those who had despised the wise Prediction of Mentor, lost all their
Slaves and their Cattle. Upon this, the King said to Mentor; I forget that you
are Greeks; our Enemies are become our faithful Friends; the Gods have sent you
to save us; I expect no less from your Valor, than from the Wisdom of your
Words: Hasten therefore to assist us.

Mentor showed in his Eyes a boldness, that was sufficient to astonish the
fiercest Warrior. He takes up a Shield, a Helmet, a Sword and a Lance: He draws
up the Soldiers of Acestes, puts himself at their Head, and advances in good
Order toward the Enemy. Acestes, though full of Courage, could not follow him,
but at a distance, by reason of his Age. I followed him more close. But nothing
can equal his Valor. In the Fight, his Helmet resembled the immortal One of
Minerva. Death flew from Rank to Rank, wherever his Blows fell: As a Lion of
Numidia, provoked by cruel Hunger, falling upon a Flock of unresisting Sheep,
kills, tears, and swims in Blood: Whilst the Shepherds far from assisting their
Flock, fly trembling away from his Fury.

These Barbarians, who hoped to surprise the City, were themselves surprised
and defeated. The Subjects of Acestes were animated by the Example and Words of
Mentor; and felt a Vigor which they thought not to be in them. With my Lance I
killed the Son of the Barbarian King. He was of my Age, but much higher than I
am; for this People is descended from Giants, and of the same Race with the
Cyclops. He despised so weak an Enemy; but I, not at all daunted with his
prodigious Strength, or his fierce and savage Looks, pushed my Lance against
his Breast, and made his Soul gush out at the Wound in a Torrent of black and
reeking Blood. As he fell he was like to crush me in pieces by his Fall. The
sound of his Arms echoed in the Hills. I took the Spoil, and returned to
Acestes with the Arms I had gained from this formidable Enemy. Mentor having
entirely broken the Barbarians, pursued them to the Woods, and cut them in
pieces. This unexpected Success made Mentor to be regarded, as one cherished
and inspired by the Gods: And Acestes from a sense of Gratitude, showed his
Concernment for us if the Fleet of Eneas should return to Sicily. He gave us a
Ship to carry us to our own Country; made us many and rich Presents, and
pressed us to hasten our Departure, that we might prevent any Mischief. But he
would not give us either a Pilot, or Mariners of his own Nation, sor fear they
might be exposed to too much Hazard upon the Coast of Greece. He committed us
to the care of certain Phenician Merchants, who Trading with all the People of
the World, had no occasion to fear, and ordered them to bring back the Ship,
when they had left us safe in Ithaca. But the Gods, who sport with the Designs
of Men, had reserved us for farther Calamities.

The Tyrians by their Insolence had highly provoked the King of Egypt, whose
name was Sesostris, and who had conquered many Kingdoms. The Riches they had
acquired by Trade, and the impregnable Strength of Tire, which stands situated
in the Sea, had rendered this People so Proud, that they not only refused to
pay the Tribute which Sesostris imposed upon them in his ruturn from the
Conquests he had made, but assisted his Brother with Forces, who had conspired
to murder him on the Festival that was appointed to be celebrated on account of
his great Victories. For these Reasons Sesostris resolved to humble them, by
ruining their Commerce at Sea, and commanded all his Ships to seek out and
assault the Phenicians. One of his Fleets met with us, as soon as we lost sight
of the Sicilian Mountains, when the Harbor and Land seemed to fly from behind
us, and lose themselves in the Clouds. At the same time we saw the Egyptian
Ships advancing toward us like a sloating City. The Phenicians perceived, and
endeavored to avoid them, but 'twas too late. Their Ships were better Sailors,
their Mariners more numerous, the Wind favored them, they Boarded us, Took us,
and carried us Prisoners to Egypt. I told them, but in vain, that I was no
Phenician, they hardly vouchsafed to hear me; they looked upon us as Slaves, in
which Merchandise they knew the Phenicians traded, and thought only of making
the best of their Prize. We arrived in the Island of Pharos, and rom thence
were carried up the Nile to Memphis. If the Grief we felt by reason of our
Captivity, had not rendered us insensible to all Pleasure, our Eyes would have
been charmed with the fruitful Country of Egypt, like a delicious Garden every
where Watered with the purest Streams. We could not turn our Eyes on either
side of the River, without discovering many opulent Islands; great numbers of
well situated Villa's; Lands richly covered with a golden Harvest; Meadows full
stocked with Cattle; Laborers bowing under the weight of the Fruits they had
gathered, and Shepherds that made the Eccho's on every side repeat the sweet
sound of their Pipes and Flutes.

Happy, said Mentor, is the People, who are governed by a wise King: They live
in Plenty and Contentment, and love him to whom they owe their Felicity. Thus,
said he, O Telemachus you ought to Reign, and be the Joy of your People. If
ever the Gods give you the Possession of your Father's Kingdom, love your
People as your Children; feel the Pleasure of being beloved by them, and carry
your self so, that all the Tranquillity and Pleasure they enjoy, may lead them
to remember, that they are the rich Presents of a good King: Kings who make it
their only business to render themselves formidable to their own Subjects, and
to impoverish them in order to make them more submissive, are the Plagues of
Mankind. They are perhaps feared, as they desire; but they are hated, detested,
and have more reason to be afraid of their Subjects, than their Subjects have
to fear them.

I answered, alas, Mentor, It Is not now the Question, by what Maxims a King
ought to Reign. We shall never see Ithaca again. We shall never see our Country
or Penelope more; and though Ulysses should return full of Glory to his Kingdom,
he would never have the satisfaction of seeing me there; nor I that of obeying
him, and learning the Rules of Government from him. No, Let us dye, dear
Mentor; for we must have no other Thoughts: Let us dye, since the Gods have no
Compassion for us. As I spoke, my Words were interrupted with sighs. But
Mentor, though he could be apprehensive of approaching Evils, knew not what it
was to fear them when they had happened. Unworthy Son of the wise Ulysses,
cried he, Do thou suffer thy self to be overcome by thy Misfortunes? Know
that you shall one Day see both Ithaca and Penelope. You shall see what your
Eyes have never seen, The invincible Ulysses in his former Glory: He, whom
Fortune cannot Conquer, and who in greater Misfortune admonishes us never to
Despair. O! if he should hear in the Regions, where he is driven by the Winds
and Sea, that his Son knows not how to imitate him, either in Patience or
Courage, such News would overwhelm him with Shame, and prove more heavy than
all the Misfortunes he has yet suffered.

After this Mentor caused me to observe the Fertility and Happiness that was
seen over all the Country of Egypt, which contained Two and twenty thousand
Cities. He admired the regular Government of these Places; the distribution of
Justice, which was every where exercised with great regard to the Poor; the
good Education of Children, who were inured early to Obedience, Labor,
Sobriety, Arts or Learning; the due observation of all the Ceremonies of
Religion, a generous and disinterested Spirit, a great desire of Reputation, an
universal Sincerity in their Dealings with Men, and a just Reverence of the
Gods; which every Father took care to infuse into his Children. He thought he
could never enough admire this beautiful Order. He would often cry out in a
Rapture of Joy, O! how happy is that People, which is thus governed by a wise
King! But yet more happy is that King, who when he has provided for the
Happiness of so great a People, can find himself happy in his own Virtue. Such
a one is more than feared; he is beloved. Men not only Obey him; but they Obey
him with Pleasure. He Reigns universally in their Hearts; and every Man is so
far from desiring his Death, that he fears it above all Misfortunes, and would
readily sacrifice his Life for him.

I heark'ned with Attention to what Mentor said; and as he spoke, I found my
Courage to revive in the bottom of my Heart. As soon as we were arrived at the
rich and magnificent City of Memphis, the Governor commanded us to be sent to
Thebes, in order to be presented to King Sesostris, who being highly incensed
against the Tyrians, had resolved to examine us himself. So we proceeded in our
Voyage up the River Nile, till we came to the famous Thebes, which has a
Hundred Gates, and serves for a Habitation to that great King. This City
appeared to us of a vast Extent, and more Populous than the most flourishing
Cities of Greece. The Orders are Excellent, in all that regards the neatness
and convenience of the Streets, the course of the public Waters; the Baths;
the advancement of Arts and Sciences, and the common Safety. The Piazza's are
adorned with Fountains and Obelisks. The Temples are Marble; of plain, but
majestic Architecture. The Palace of the Prince is like a great City; it is
full of Marble Pillars, Pyramids, Obelisks and vast Statues, with Movables of
solid Gold and Silver. They who took us, informed the King, that they found us
on board a Phenician Ship. For he had certain Hours of every Day, in which he
regularly heard all his Subjects, that had any thing to say to him, either by
way of Complaint or Advice. He neither despised nor rejected any Man, and knew
he was King for no other end, than to do Good to his Subjects, whom he loved as
his Children. Strangers also he received with Kindness, and was always desirous
to see them; because he thought it a useful and advantageous Thing to be
informed of the Customs and Maxims of remote Nations; and this Curiosity of the
King was the principal Cause that we were brought before him. When he saw me,
he was upon a Throne of Ivory, with a golden Scepter in his Hand. He was Aged,
but Comely, full of Sweetness and Majesty. He daily distributed Justice to the
People, with such Patience and Wisdom, as made him admired without Flattery.
After he had spent the whole Day in doing Justice, and taking care of the
public Affairs, he usually passed the Evening in hearing the Discourses of
learned Men, or conversing with the best of his People, whom he knew how to
choose, and admit into his Familiarity. During his whole Life he could not be
blamed for any thing, except for triumphing with too much Pomp over the Kings
he had Conquered, and trusting a Man whose Picture I shall draw by and by. He
was moved with my Youth and my Affiction, and asked me my Country and my Name,
whilst we wondered at the Wisdom that spoke by his Mouth. I answered You have
undoubtedly heard, O Great King, of the Siege of Troy, which lasted ten Years,
and the destruction of that City, which cost so much Grecian Blood. Ulysses, my
Father, was one of the principal Kings who ruined that Place. He now wanders
through all the Seas, without being able to return to the Island of Ithaca,
which is his Kingdom. I seek my Father, and by a Misfortune equal to his own,
have been surprised and taken Prisoner. Restore me to my Father and Country,
and may the Gods preserve You to your Children, and make them sensible of the
Pleasure of living under so good a Father.

Sesostris continued to look upon me with an Eye of Compassion; but being
desirous to know if what I said was true, he referred us to be examined by one
of his Officers, commanding him to inquire of those that took our Ship, whether
we were Greeks or Phenicians. If they are Phenicians, said the King, they must
be doubly punished, first because they are our Enemies, and then, because they
have endeavored to deceive us by a base Falsehood. But if on the contrary they
are Greeks, I will have them to be treated favorably, and sent back into their
own Country in one of my Ships; For I love the Greeks, who have received many
Laws from the Egyptians. I am not ignorant of the Virtues of Hercules, the
Glory of Achilles has reached our Ears, and I admire what I have heard of the
Wisdom of the unhappy Ulysses. I have no greater Pleasure than to assist
unfortunate Virtue.

The Officer to whom the King had referred the Examination of our Business, had
a Heart as Corrupted and Malicious, as Sesostris was Sincere and Generous. The
Name of this Man was Metophis. He endeavored to ensnare us by artificial
Questions; and when he saw that Mentor answered with more Wisdom than I, he
looked upon him with Aversion and Diffidence; for ill Men are always Enemies to
the Good. He caused ut to be separated, and from that time I knew not what
became of Mentor. This Separation was to me, as if I had been struck with
Thunder. Metophis was not without hopes, that by a separate Examination, we
might be drawn to say contrary Things. At least he thought to dazzle my Eyes
with his flattering Promises, and make me acknowledge what Mentor had concealed
from him. In a Word, he sought not to find out the Truth; but by any means to
get a pretense to tell the King we were Phenicians, that he might keep us for
his Slaves.

In effect, notwithstanding our Innocence, and all the Wisdom of the King, he
found out a way to deceive him. Alas! How are Kings exposed? The wisest are
often abused by Men of Artifice and Interest, that are about them. Good Men
retire from Courts, because they are neither Presumptuous nor Flatterers. They
wait till they are sent for; and Princes seldom know how to send for them. On
the other Hand, ill Men are Bold, Deceitful, Impudent and Insinuating; dextrous
at Dissembling, and ready to do any thing against Honor and Conscience, to
gratify the Passions of the Person that Reigns. O! how unhappy is that King,
who is open to the Artifices of bad Men? He is lost if he does not suppress
Flattery, and love those who speak the Truth with Confidence.

These were the Reflections I made in my Misfortunes, when I called to mind the
things that I had heard from Mentor.

In the mean time Metophis sent me toward the Mountains of the Desert with his
Slaves, that I might serve with them to look after his numerous Flocks. Here
Calypso interrupted Telemachus, and said, Well! and what did you then? You,
that in Sicily had preferred Death before Servitude. Telemachus answered, My
Misfortunes increased Daily; I had no longer the wretched liberty of choosing
between Slavery and Death; I was compelled to be a Slave, and to exhaust all
the rigours of Fortune. I had lost all hope, and could not say one word in
order to my Deliverance. Mentor has since told me, that he was sold to certain
Ethiopians, and that he followed them to Ethiopia.

As for me, I arrived in a horrid Desert, where nothing but burning Sands was
to be seen upon the Plains, and Snow that never melted made an eternal Winter
on the tops of the Hills. Only some scattered Pasture for the Cattle was here
and there found among the Rocks. In the midst of these Precipices, the Valleys
are so profound, that the Sun can scarce let fall a Beam upon them. I found no
other Men in these Places than Shepherds, as savage as the Country it self.
There I passed the Nights in bewailing my Misfortune, and the Days in following
my Flock, to avoid the brutal Rage of Buffus, who was chief among the Slaves,
and who hoping to obtain his Liberty, never ceased from Calumniating the rest,
that he might persuade Metophis of his Zeal and Industry in his Service. On
this occasion, Impatience was pardonable. In the anguish of my Heart I one Day
forgot my Flock, and lay down upon the Grass by a Cave, where I expected Death
to relieve me from the Evils I was not able to bear. In that Instant I
perceived the Mountain to tremble, the Oaks and Pines seeming to descend from
the summet of the Hill: The Winds suppressed their Breathing, and a hollow
Voice issuing out of the Cave pronounced these Words. O Son of the wise
Ulysses, thou art to be like him, great by Patience. Princes who have always
been happy, are seldom worthy to be so: They are corrupted by unmanly
Pleasures, and drunk with the Pride of Prosperity. Happy shall thou be, if thou
can surmount these Misfortunes, and always remember thy present Condition:
Thou shall certainly see Ithaca again, and thy Glory shall ascend to the
Heavens: When thou shall command Men, remember that thou have been like them in
Poverty, Weakness and Calamity. Take a Pleasure in being good to them; love thy
People, detest Flatterers, and know that there is no other way to be truly
great, than by Moderation and Fortitude to overcome thy Passions.



These divine Words penetrated to the bottom of my Heart; renewed my Joy, and
revived my Courage: I felt-none of that Horror which makes Men's Hair stand
upright, and chills the Blood in their Veins, when the Gods communicate
themselves to Mortals. I rose from the Ground with Cheerfulness; I fell upon my
Knees; and lifting up my Hands to Heaven, I adored Minerva, who, I doubted not,
had sent me this Oracle. In that Moment, I found my self a new Man; Wisdom
enlightened my Mind; I found a gentle Force restraining all my Passions, and
checking the impetuosity of my Youth. I acquired the Love of all the Shepherds
in the Desert. My Patience, Sweetness and Diligence moved even the cruel Buffus
to relent, who commanded the rest of the Slaves, and had made it his Business
at first to torment me. I endeavored to procure some Books to enable me to
support the tediousness of my Captivity and Solitude; for I was exceedingly
uneasy for want of some Instructions to nourish and sustain the Faculties of my
Soul. Happy, said I, are they, who quitting all violent Pleasures, know how to
content themselves with an innocent Life. Happy are they, who are diverted with
what they learn, and please themselves in enriching their Minds with Knowledge,
wheresoever they are driven by the unjust Persecutions of Fortune! They carry
their own Entertainment with them; and the uneasiness that lies upon all other
Men, even in the midst of the greatest Pleasures, is unknown to those, who know
how to employ themselves in Reading.

These Men are truly happy, whilst I am deprived of this Felicity. Revolving
these Thoughts in my Mind, I penetrated into the thickest of the Forest, and on
a sudden perceived an aged Man holding a Book in his Hand. His Forehead was
large and high, unfurnished with Hair, and somewhat wrinkled: His white Beard
descended to his Girdle: He was tall, and of a majestic Port: His Complexion
was fresh and well Colored. His Eyes lively and piercing. His Voice sweet, and
his Discourse plain, but agreeable. I never saw so venerable an old Man. His
name was Termosiris. He was a Priest of Apollo, and the Temple where he served
was of Marble, dedicated to that God, and founded by the Kings of Egypt in this
Forest.

He accosted me in a friendly manner: We talked together: He related Things
past with such clearness, that they seemed present; but his Relations were
always attended with brevity, and never tedious. He could predict Things
future, by his profound Wisdom, which gave him a thorough Knowledge of Men, and
the Designs the are capable of forming. With all this Prudence, he was Cheerful
and Complaisant; and the gayest Youth does nothing with so much Grace as this
aged Man. He loved those that were Young, if he found them Teachable, and if
they had any taste of Virtue. He soon conceived a tender Affection for me, and
gave me Books for my Consolation: He called me his Son; and I often said to
him, Father, The Gods that took Mentor from me, have pitied my Solitude, and
sent me in You another support. This Man like Orpheus or Linus was doubtless
inspired by the Gods.

He would sometimes read to me the Verses he had made, and give me the most
excellent Compositions of those Poets, who had been the principal Favorites of
the Muses.

When he put on his long Robes of the purest White, and took his golden Harp in
his Hand, the Tigers, the Bears and the Lions came to lie down by him, and
licked his Feet. The Satyrs abandoned the Woods to come and Dance about him.
The Trees themselves seemed to move; and you would have thought that the Rocks
had been touched with the Charms of his sweet Accents, and were going to
descend from the tops of the Mountains. He sung the Grandeur of the Gods, the
Virtue of Hero's, and the Wisdom of those who prefer Glory before Pleasure.

He often told me that I ought to take Courage, and that the Gods would not
abandon either Ulysses or his Son. He exhorted me to imitate Apollo, and
persuade the Shepherds to apply themselves to the Muses. Apollo, said he,
considering with Indignation, that the brightest Days were frequently disturbed
by Jupiter's Thunder, resolved to be revenged upon the Cyclops, who made the
Bolts, took up his Bow, and pierced them with his Arrows. Upon this, Mount Etna
ceased to vomit Cylinders of Fire; and Men no longer heard the terrible Hammers
striking upon the Anvil, and ecchoing in Groans from the Abysses of Earth and
Sea. The Iron and the Brass abandoned by the Cyclopes began to rust. Vulcan in
Fury quits his dreadful Forge, and notwithstanding his Lameness, mounts Olympus
with Expedition; comes covered with black Dust and Sweat into the Assembly of
the Gods, and makes a most bitter Complaint. Jupiter, incensed against Apollo,
drove him from Heaven, and precipitated him down to the Earth. His empty
Chariot performed the usual course of it self, and gave Men Night and Day, with
a regular change of Seasons. Apollo deprived of his glorious Beams, was forced
to turn Shepherd, and keep the Sheep of King Admetus. He played upon the Flute,
and all the other Shepherds came down to the shady Elms and silver Streams to
hear his Songs. To that time they had lived a savage and brutal Life: They knew
only how to guide their Flocks, to sheer them, to draw their Milk, and to make
Cheeses: The whole Country was one frightful Desert.

Apollo in a short time made all the Shepherds acquainted with the Pleasures of
a rural Life. He sung the Flowers that compose the Garland of the Spring; the
beautiful Greens, and the sweet Perfumes of that agreeable Season. He sung the
delicious Nights of Summer, when the Zephyrs refresh Mankind, and the Dews ally
the Thirst of the Earth. He forgot not in his Songs the golden Harvest and
autumnal Fruits, which recompense the Toil of the Husbandman; nor the
Recreations of Winter, when the wanton Youth dance before the glowing Fire. He
represented the Groves and shady Forests that cover the Hills; the hollow
Valleys, and the Rivers that wind themselves about the lovely Meadows. He
taught the Shepherds what are the Charms of a Country Life, when Men know how
to relish the Presents of pure and uncorrupted Nature. The Shepherds with their
Flutes soon saw themselves more happy than Kings, and their Cottages were
filled with variety of innocent Pleasures, no where to be found in gilded
Palaces. Harmless Sports, unaffected Graces, and innocent Joys, accompanied the
Shepherdesses wheresoever they went.

Every Day was a Festival: Nothing was heard but the Singing of Birds, or the
soft whispering of the Zephyrs, as they were playing about the Branches of the
Trees, or the murmur of Waters falling from the Rocks, or Songs that were
inspired by the Muses, and sung by the Shepherds that followed Apollo. This God
taught them also to be victorious in Races, and to pierce the Hinds and Stags
with their Arrows. The Gods themselves became jealous of the Shepherds. This
sort of Life apear'd to them more ravishing than all their Glory. They called
Apollo back again to Heaven.

My Son, This Story may serve for your Instruction, since you are in the same
Condition Apollo was. Manure this uncultivated Ground; make a Desert flourish,
as he did; like him, teach the Shepherds what are the Charms of Harmony; polish
the roughness of their Minds; show them the beauty of Virtue, and make them
feel how sweet it is to enjoy in this Solitude those innoeent Pleasures that
nothing can take away from Shepherds. A Time will come, my Son, a Time will
come, when the Toils and Cares that encompass Kings, will make you regret a
pastoral Life.

Termosiris having said this, presented me with a Flute, so sweet, that the
Eccho's of the Hills, which carried the sound on every side, drew all the
neighboring Shepherds presently about me. My Voice was divinely Harmonious, I
felt my self moved, as by a superior Power, to sing the Beauties that Nature
has bestowed upon the Country. We passed the Days, and part of the Nights in
Singing together. All the Shepherds forgot their Cottages and their Flocks, to
stay with me whilst I gave them Lessons. The savage Rudeness of our Deserts
disappeared all Things seemed to look Gay and Pleasant; and the politeness of
the Inhabitants communicated it self to the Country. We frequently met to
Sacrifice in the Temple of Apollo, where Termosir is officiated as Priest. The
Shepherds went thither Crowned with Laurel, in Honor of the God. We made a
Country Feast; and the most delicious of our Fare, was the Milk of our Goats
and Sheep, with various Fruits, fresh gathered with our own Hands, such as
Dates, Figs and Grapes: Our Seats were the green Turf, and our spreading Trees
afforded us a Shade, more Pleasant than the gilded Roofs in the Palaces of
Kings. But that which above all other Things made me famous among our
Shepherds, was, That one Day a hungry Lion fell upon my Flock; already he had
begun a dreadful Slaughter; I had nothing in my Hand but my Crook, yet I
advanced boldly. The Lion erects his Mane, gnashes his Teeth, unsheaths his
dreadful Claws, and opens his parched and inflamed Throat. His Eyes were full
of Blood and Fire; and he lashed his Flanks with his Tail. I took him by the
Throat, and threw him upon the Ground. The little Coat of Mail that I wore,
according to the Custom of the Egyptian Shepherds, hindered him from tearing my
Body. Thrice I threw him upon his Back, and Thrice he raised himself again,
roaring so loud, that he was heard through all the Forests. At last I threw him
to the Ground, and Strangled him with my Hands. The Shepherds who were
Witnesses of my Victory, obliged me to wear the Skin of this terrible Animal.

The Fame of this Action, and the wonderful alteration that had happened among
our Shepherds, spread through Egypt, and came to the Ear of Sesostris. He was
informed that one of the two Captives, who had been taken for Phenicians, had
restored the Golden Age to his inhospitable Deserts. He resolved to see me, for
he loved the Muses; and his great Soul was affected with whatsoever might be
useful to Mankind. He saw me; he heard me with Pleasure, and discovered that
Metophis had deceived him through Covetousness. He condemned him to a perpetual
Prison, and siez'd his Riches, which he unjustly pofsess'd. O! said he, how
unhappy is the Man, who is placed above the rest of Men! He can seldom see the
Truth with his own Eyes: He is surrounded by those who keep the Truth from
approaching him: Their Interest leads them to deceive him Every one conceals
his Ambition under the appearance of Zeal. They pretend to love the King; but
indeed love only the Riches he can give. Nay, they love him so little, that to
obtain his Favors, they flatter and betray him.



From this time Sesostris treated me with a tender Friendship; and resolved to
send me back to Ithaca, with a powerful assistance of Ships and Troops, to
deliver Penelope from the Persecutions of her Lovers. The Fleet was ready, and
we thought of nothing but Embarking. I admired the strange Conduct of Fortune,
to exalt those on a sudden that she has most depressed. This Experience made me
hope that Ulysses might return at last to his Kingdom after all his Sufferings;
and I thought it not impossible to see Mentor again, though he had been carried
into the farthest parts of Ethiopia. Whilst I delayed my departure to inquire
after him, Sesostris, who was very Aged, died suddenly, and his Death brought
all my Misfortunes back upon me. All Egypt became sensible of this irreparable
Loss. Every Family knew they had lost their best Friend, their Protector, their
Father. The old Men lifting their Hands to Heaven, cried out with a lamentable
Voice, Egypt never had so good a King, and never will have one like him. O ye
Gods, you should never have shown him to Men, or never have taken him away: Why
do we survive the Great Sesostris? The young Men said, The hopes of Egypt are
vanished. Our Fathers were happy to live under so good a King.

Multitudes of People from the remotest Parts, came running to Thebes during
sorty Days. Every one was desirous to preserve the Idea of him; and many to be
buried with him. But their Grief was yet farther aggravated: For they knew that
his Son Boccoris had neither Humanity for Strangers, nor Affection for
Knowledge, nor Esteem for virtuous Men, nor Desire of Glory. The greatness of
his Father had contributed to make him unworthy to Reign. He had been educated
in an effeminate Softness, and brutal Pride. He accounted Men as nothing,
believing them made only to be his Slaves, and himself to be of a Nature
different from them. He thought of nothing but how he might gratify his
Passions; dissipate the vast Treasures his Father had husbanded with so much
Care; oppress the People; satiate himself with the Blood of the Unfortunate,
and follow the flattering Counsels of young Fools, that he kept about him,
whilst he treated with the utmost Contempt all the ancient Sages, who had been
entrusted by his Father. In a Word, he was a Monster, and not a King. All Egypt
groaned under him; and though the name of Sesostris, which was so dear to the
Egyptians, made them support the base and cruel Conduct of his Son: Yet he made
have to Ruin; for 'twas impossible that a Prince so unworthy of the Throne,
should Reign long.

As for me, I thought no more of returning to Ithaca: I was confined to a Tower
that stands by the Sea near Pelusium, where I should have embarked, if
Sesostris had not died. Metophis had been freed from his Imprisonment, and
received into Favor by the new King. 'Twas he that caused my Confinement, to
revenge the Disgrace I had brought upon him. I passed the Days and Nights in
the profoundest Melancholy. All the Things which Termosiris had foretold, and
those that I had heard from the Cave, appeared to me to be but Dreams. I was
ready to sink under the weight of my Grief. I saw the Waves beating at the foot
of the Tower where I was Prisoner. I often employed my time, in observing the
Ships that were overtaken by Storms, and in danger to be split against the
Rocks, upon which the Tower was built. Far from pitying these Men, who were
threatened with Shipwreck, I envied their Condition. In a short time, said I to
my self, they will see an end of all their Misfortunes, or arrive in their own
Country. But, Alas! I can hope for neither. Whilst thus I consumed away in
useless Regrets, I perceived as a Forest of Masts; the Sea was covered with
Ships, and the Winds filled all their Sails. The Waters turned into a Foam
under the Strokes of innumerable Oars. I heard a confused Noise on every side.
I saw one part of the Egyptians upon the Shore, terrified, and running to their
Arms, whilst others seemed going to receive the Fleet, which they saw arriving.
I soon perceived that part of these Ships were of Phenicia, and the rest of the
Island of (...) For my Misfortunes began to render me experienced in every
thing that relates to Navigation. The Egyptians were divided among themselves.
And I doubted not that the foolish King, had by his Violences caused his
Subjects to Revolt, and raised a Civil War. I was Spectator of a bloody Battle
from the top of my Tower.

That part of the Egyptians who had invited these Foreigners to their
Assistance, having favored their Descent, fell upon the other Egyptians, who
had the King at their Head. I saw this King encouraging his Men by his own
Example. He appeared like the God of Battle. Streams of Blood ran down by his
side. The Wheels of his Chariot were died with black, thick and foaming Gore,
and could hardly move, for the numbers of dead Men that lay in the way. This
young King, vigorous of Body, fierce and haughty in his Looks, had Rage and
Despair painted on his Face. He was like a beautiful Horse that has no Mouth.
His Courage pushed him on to Danger; but he had no prudence to moderate his
Valor. He knew neither how to repair a Fault, nor to give the necessary
Orders, nor to foresee the Dangers that threatened, nor to manage his Men to the
best Advantage. 'Twas not, that he wanted Understanding; his Quickness was as
great as his Courage; but he had never been instructed by Adversity. His
Masters had poisoned his good Nature with their Flattery: He was drunk with his
own Power and Felicity: He thought every thing must yield to his impetuous
Desires. The least Resistance put him into a Rage: He consulted his Reason no
longer; his Pride transformed him into a Savage Beast; his natural Goodness
forsook him in an instant; the most faithful of his Servants were forced to fly
from him, and he considered none but those who flattered his Passions. By this
means he always (...) into Extremities, against his true Interest, and made all
honest Men detest his foolish Conduct. His Valor sustained him for a long time
against the multitude of his Enemies; but at last he was born down with
Numbers. I saw him perish; the Arrow of a Phenician pierced his Breast: He sunk
down in his Chariot, and not being able to hold the Reins any longer, he was
overthrown and trampled under Foot by the Horses. A Soldier of Cyprus cut off
his Head, and holding it up by the Hair, showed it in Triumph to the victorious
Army. I shall ever remember, that I saw the Head smeared with Blood; the Eyes
shut and extinguished; the Face pale and disfigured; the Mouth half open, and
attempting to finish some Words it had begun, a fierce and menacing Air, which
Death it self could not efface. This sight will be always before my Eyes to the
last day of my Life. And if ever the Gods permit me to Reign, I Shall never
forget, after this fatal Example, That no King is worthy to Command, or can be
happy in the Possession of his Power, unless he himself be governed by Reason;
and that it is the utmost of all Misfortunes for a Man, who is created for the
Public Good, to govern vast Numbers of Men only to render himself miserable.



Calypso heard with Astonishment these wise Reflections: And that which charmed
her the most, was, to see how the young Telemachus ingeniously related the
Faults he had committed, either through Precipitation, or want of Docility for
the sage Mentor. She was surprised with the greatness and generosity of his
Mind; who accused himself, and made so good use of his own Imprudences, to
become Wise, Sagacious and Moderate. Continue, said she, my dear Telemachus; I
long to know how you left Egypt, and where you found the wise Mentor, whose
Loss was so sensible to you.

Telemachus resuming his Discourse, said; The best of the Egyptians, who were
most faithful to the King, finding themselves overpowered, and the King dead,
were compelled to submit to the rest; and another King called **** was
established. The Phenicians and the Troops of Cyprus departed from Egypt, after
they had made an Alliance with the new King. All the Phenicians that were
Prisoners, were set at Liberty, and I was accounted one of them. I departed
from the Court; I embarked with the rest, and my Hopes began to revive in the
bottom of my Heart. Already a favorable Wind filled our Sails; our Oars cut
the foaming Waves; the vast Sea was covered with our Ships; the Mariners
shouted for Joy; the Shoars of Egypt (...) from us; the Hills and Mountains
diminished; we began to see nothing but the Heavens and the Waters, whilst the
Sun surrounded with sparkling Flames, seemed to rise from the bosom of the Sea;
his Rays gilded the tops the Mountains, which we could still discover upon the
Horizon, and the whole face of Heaven painted with a sable Azur, gave us Hopes
of a happy Navigation.

Though I had been set at Liberty, as one of the Phenicians; yet none of them
knew who I was. Narbal, who commanded the Ship that carried me, asked me my
Name and my Country. Of what City, said he, in Phenicia are you? I am not a
Phenician, said I; but the Egyptians took me at Sea in a Phenician Ship. I have
been a long time Prisoner in Egypt as a Phenician; under that Name I have
suffered, and under that Name I am delivered. Of what Country art thou then,
said Narbal? I am, said I, Telemachus, Son to Ulysses King of Ithaca in Greece.
My Father made himself famous among the Kings, who beseig'd the City of Troy;
but the Gods have not permitted him to return to his Country. I have sought him
in many Climates, and Fortune Persecutes me also. You see an unfortunate
Person, who desires no other Happiness than to return to his Country, and to
find his Father. Narbal looked upon me with Astonishment, and thought he saw in
my Face some Marks of Happiness, that proceed from the favor of Heaven, and
are not in the rest of Men. He was by Nature sincere and generous. He was moved
with my Misfortunes; and put a confidence in me, that the Gods inspired him
with, for my Preservation.

Telemachus, said he, I doubt not the Truth of what you say, neither can I
doubt: The lively Images of Grief and Virtue drawn upon your Face, will not
give me leave to distrust you. I perceive that the Gods which I have always
served, love you, and will have me to love you, as if you were my Son. I will
give you safe and useful Advice, and for my Recompense desire nothing of you
but Silence. Fear not, said I, for I can without difficulty keep any thing
secret that you shall trust to my Discretion. Though I am young; yet I have grown
up in the Habit of not discovering my own Secret, and much more of not
betraying under any pretext the Secret of another. How have you been able, said
he, to accustom your self to keep Secrets in such tender years. I shall be glad
to know, by what means you have acquired this admirable Quality, which is the
Foundation of the wisest Conduct, and without which all other Talents are
Useless.

When Ulysses, said I, departed to assist in the Siege of Troy, he took me upon
his Knees and embraced me (for thus I have been told the Story) and after he
had kissed me in the tenderest manner, he said these Words to me, though I could
not then understand them. O my Son! may the Gods prevent me from ever seeing
thee again; let rather the fatal Scissars cut the Thread of thy early Days, as
the Reaper cuts down with his Sicle the tender Flower that begins to blow; let
my Enemies dash thee in pieces before the Eyes of thy Mother and Me, if ever
thou art to be Corrupted, and to relinquish the Ways of Virtue. O! my Friends,
continued he, I leave my dear Son with you; take care of his tender years; if
you love me, banish all Pernicious Flattery from about him; instruct him how to
overcome his Passions, and let him be like a tender Plant, that Men often bend
in order to make it grow upright. Above all, forget not to render him Just,
Benificent, Sincere, and faithful in keeping a Secret. Whoever is guilty of a
Lie, is unworthy to be accounted a Man; and whoever knows not how to be Silent,
is unworthy to govern.



I am exact in the Repetition of these Words; because care was taken to
inculcate them often into me. My Father's Friends made it their Business to
exercise me early in keeping Secrets. I was yet in my Infancy, when they
trusted me with all the Troubles they sustained, to see my Mother exposed to
the Persecutions of so many that pretended to marry her. Already they treated
me as a Man of Reason and Fidelity. They entertained me privately of the most
important Affairs, and acquainted me with all the measures they took to expel
the Pretenders.

I was overjoyed to be trusted in this manner; I never abused the confidence
reposed in me; I never let fall one single Word, that might discover the least
Secret. The Pretenders often endeavored to make me talk, expecting that a
Child, who had seen or heard any thing of Importance, would not have been able
to conceal it. But I knew how to answer them without lying, and without
informing them of any thing that I ought not to discover.

Upon this, Narbal said to me; You see, Telemachus, the Power of the
Phenicians. They are formidable to all their Neighbors by their numerous
Fleets. The Trade they drive as far as the Columns of Hercules, furnishes them
with Riches surpassing all those of the most flourshing Nations. The great
Sesostris, who could never have subdued them by Sea, did with great difficulty
defeat them by Land with those Armies that had conquered all the East, and
imposed a Tribute upon us, which has not continued long.

The Phenicians found themselves too Rich and too Potent, to wear the Yoke of
Servitude with Patience. Sesostris was prevented by Death from finishing the
War against us. It Is true, we had reason to fear the Event, and that much more
on account of his wisdom than his Power. But as soon as his Power, without his
Wisdom, had passed into the Hands of his Son, we concluded we had no more to
fear.

In effect, the Egyptians have been so far from returning in Arms to make an
entire Conquest of our Country, that they have been constrained to call us to
their Assistance to deliver them from the Fury of an impious and outrageous
King. We have been their Deliverers, and have added the glory of this Action to
the Liberty and Riches of our Country. But whilst we deliver others, we our
selves are Slaves. O Telemachus, beware of falling into the cruel Hands of
Pygmalion our King. He has already died them in the Blood of Sicheus, his
Sister Dido's Husband. Dido, full of Horror and Revenge, is fled from Tire with
many Ships. Most of those who are best affected to Liberty and Virtue have
attended her. She has founded a Magnificent City upon the Coast of Africa, and
called it Carthage. Pygmalion, tormented with and insatiable Thirst of Wealth,
renders himself every day more wretched, and odious to all his Subjects. It Is a
Crime at Tire to be Rich. His Avarice fills him with Suspicion, Distrust and
Cruelty. He persecutes the Wealthy, and fears the Poor. Every thing disturbs
him, affrights him, preys upon him. He trembles at his own Shadow; he sleeps
neither by Night nor by Day. The Gods, to confound him, load him with Treasures
which he dares not enjoy. The things he covets to make him happy, are precisely
those that make him miserable. He regrets whatever he gives; dreads to loose,
and torments himself with Hopes of Gain. He is seldom seen. He shuts himself up
in the remotest parts of his Palace, sad, alone, disconsolate. His Friends dare
not approach him, for fear of being suspected. A Guard, terrible to see, stands
round his House, with Swords drawn, and erected Pikes. Thirty Chambers on a
Floar, with Doors of Iron, and six massy Bolts upon each, make up the dreadful
Apartment, where he hides himself. No one ever knows in which of these Chambers
he lies. It Is said, he never lies in any of them two Nights together, for fear
his Throat should be cut.

He knows no sweet Enjoyments, nor the sweeter Effects of Friendship. If any
one speak to him of Joy, he finds it will not come near him, and refuses to
enter into his Heart. His hollow Eyes are full of a fierce and savage Fire,
incessantly rolling on every side. He is moved at the least Noise; he hearkens
attentively; becomes pale and dejected; and anxious Care sits pictured upon his
wrinkled Face. He sighs; is silent, and groans from the bottom of his Heart. He
is unable to conceal the Remorse that rends his Soul. He relishes not the most
delicious Food. His Children, instead of being the Hopes of his Age, are the
Subjects of his Fear. He looks upon them as his most dangerous Enemies. He
never thought himself secure one Moment of his Life. He preserves himself only
by shedding the Blood of every one he fears.

Foolish Man! who sees not, that his Cruelty which he so much relies upon, will
be his Destruction. Some Domestic Servant, as suspicious as he, will soon
deliver the World from this Monster.

As for me, I fear the Gods, and will be faithful to the King they have given
me, whatever it cost. I had rather die, than take away his Life, or fail to
defend him. For your part, O Telemachus, acquaint him not that you are the Son
of Ulysses; for he would make you a Prisoner, in expectation of a great Ransom,
when Ulysses returns to Ithaca.

When we arrived at Tire, I followed his Counsel, and found every thing he had
said to be true. I could not comprehend how a Man could make himself so
miserable as Pygmalion appeared to be. Surpised with a thing so astonishing,
and so new to me, I said thus to my self. This Man designed to be happy, and
persuaded himself, that Riches and Arbitrary Power would make him so. He does
what he will, and yet is made miserable even by that Power and those Riches. If
he were a Shepherd as I lately was, he would be as happy as I have been: He
would enjoy the innocent Pleasures of the Country, and would enjoy them without
Remorse. He would not fear either Dagger or Poison. He would love Men, and be
beloved by them. He would not indeed be Possessor of those vast Treasures,
which are as useless to him as Sand, since he dares not touch them; but he
would really enjoy the Fruits of the Earth, and suffer no manner of want.

This Man seems to do whatever pleases him; but the Case is far otherwise, for
he does all that his Passions command. He is compelled to follow, wheresoever
his Covetousness and Suspicions lead. He seems to be Master of all other Men;
but he is not Master of himself, and has as many Masters and Tormenters as he
has violent Desires.

Thus I reasoned concerning Pygmalion without seeing him; for he was not to be
seen. Men only see those lofty Towers, that are surrounded Night and Day with
dreadful Guards, where he shuts himself up as it were in Prison with his
beloved Treasures. I compared this invisible King with Sesostris, who was so
good, so easy of Access, so Affable, so ready to hear any Stranger, so
attentive in giving Audience to all Men, and to find out the Truth which is
always concealed from Kings. The good Sesostris, said I, feared nothing, and had
nothing to fear. He showed himself to all his Subjects as to his own Children.
This Man fears all, and has all to fear. This wicked King is always exposed to
the danger of a violent Death, even within his inaccessible Palace, and in the
midst of his Guards. On the contrary, the good King Sesostris was always safe
in the midst of the greatest Numbers of his People, as a gentle Father in his
own House with all his Family about him.

Pygmalion gave orders to send home the Forces of Cyprus, who came to his
Assistance by virtue of an Alliance that was between the two Nations. Narbal
took this Occasion to set me at Liberty. He caused me to be mustered among the
Cyprian Soldiers; for the King was jealous to the last degree. The usual defect
of easy and thoughtless Princes is, to deliver themselves up to the Conduct of
crafty and corrupt Ministers. On the other side, the defect of this Man was to
distrust the most Virtuous. He knew not how to distinguish Men of Probity and
Uprightness, who always act without Disguise. He had never seen an honest Man;
for such will never flatter a corrupted King.

Besides, he had found in all those who had served him since his Accession to
the Crown, so much Dissimulation and Perfidiousness, with so many horrid Vices
disguised, and only the bare Appearances of Virtue, that he looked upon all Men
without Exception, as living under a Mask, and concluded there was no real
Virtue in the World.

But to return to my self: I passed in the Muster for a Cyprian, and escaped
the watchful Jealousy of the King. Narbal trembled for fear I should be
discovered, which would have cost his Life and mine also. He was under great
impatience to see us embarked; but contrary Winds detained us at Tire.

I made use of this time to inform my self of the Manners of the Phenicians, so
famous in all parts of of the known World. I admired the happy Situation of
their City, which is built upon an Island of the Sea. The Neighboring Coast is
delicious and fruitful, abounding in exquisite Fruits, and so covered with
Towns and Villages, that they seem to touch one another. The Air is sweet and
temperate; for the Mountains shelter that Coast from the scorching Winds which
come from the South. The Country is every where refreshed by the North Wind
that blows from the Sea. It lies at the foot of Mount Libanus, which pierces
through the Clouds, and advances to meet the Stars. His Forehead is covered
with an eternal Ice; and Rivers mingled with Snow, fall down like Torrents from
the Rocks that surround his Head.

A vast Forest of ancient Cedars stands near the top, which appear as old as
the Earth on which they grow, and shoot their spreading Branches to the Clouds.
Under this Forest are rich Pastures, leaning on the descent of the Mountain.
Here one may see the bellowing Bulls wandering up and down, and the bleating
Yews with their tender Lambs bounding upon the Grass. A thousand Streams of the
Clearest Water runs down these charming Fields.

Below these Pastures is the foot of the Mountain, which appears like a Garden
on every side. Here Spring and Autumn reign together, and join the Fruits of
the one to the Flowers of the other. Neither the infected Breath of the South
Wind, that parches and burns up all, or the cruel Blasts of the NorthEast, have
ever dared to deface the lively Colors that adorn this Garden. Hard by this
beautiful Coast, an Island rises in the Sea, where the City of Tire is built.
This great City seems to float upon the Waters, and to be Queen of all the Sea.
The Merchants arrive from all parts of the World; and its own Inhabitants are
the most famous Merchants of the Universe.

When Men enter into this City, they cannot think it to be a Place belonging to
a particular People, but rather to be a City common to all Nations, and the
Center of all Trade. Two great Mole's advancing their Arms into the Sea,
embrace a vast Port where the Winds cannot enter. In this Harbor one may see,
as it were a Forest of Masts; and the Ships are so numerous that the Sea which
carries them can hardly be discovered

All the Citizens apply themselves to Commerce, and their vast Riches never
divert them from that Labor which is necessary to increase their Treasure. In
every part of the City one may see the fine Linen of Egypt, and Tyrian Purple,
twice died, and of a noble Luster. This double Tincture is so lively, as not to
be defaced by Time. It Is used upon the finest Cloth, which is to be garnished
with Gold and Silver. The Phenicians maintain a Trade with all People as far as
the Straits of Gades. Nay, they have penetrated into the vast Ocean that
encompasses the Earth. They have made long Voyages upon the Red Sea, and
visited unknown Islands, from whence they bring Gold, and all sorts of
Perfumes, with various Animals no where else to be seen.

I could not satiate my Eyes with the sight of this great City, where every
thing was in Motion. I did not see, as in the Islands of Greece, idle and
inquisitive Persons, going about to hear News in the public Places, and to
gaze upon Strangers as they arrive in the Ports. The Men are employed in
unloading their Ships; sending home their Goods; putting their Magazines in
order; selling their Merchandise, and keeping an exact Account of what is due
to them from Foreigners. The Women are always busy in spinning of Wool, in
folding up the richest Stuffs, and in various Works of Embroidery.

Whence comes it, said I to Narbal, that the Phenicians are Masters of the
Trade in all parts of the World, and enrich themselves at the expense of all
other Nations? You see, said he, the situation of Tire, how conveniently it
lies for Navigation. The Tyrians were the first (if we may believe what is told
us concerning obscure Antiquity) who in a feeble Ship durst commit themselves
to the mercy of the Waves; who subdued the Pride of the Sea; who observed the
Stars, that are so far from the Earth, according to the Knowledge they had
learnt from the Egyptians and Babylonians, and who by these means reunited so
many People, that the Sea seemed to have separated for ever. The Tyrians are
Industrious, Patient, Laborious, Sober and Frugal; exact in their Civil
Government, and united among themselves. No Nation has ever been more constant,
more sincere, more faithful, more honest, and more kind to Strangers. These,
these are the Things that have given them the Empire of the Sea, and all the
Advantages of Trade. If they should fall into Divisions and Jealousies; if they
should emasculate themselves with Pleasures and Idleness; if the principal
Citizens should come to despise Labor and Frugality; if Arts should cease to
be accounted Honorable; if they should violate their Faith with Strangers, and
transgress, though but a little, the rules of free Trade, you would soon see the
ruin of that Power you admire.

But pray, said I, instruct me how I may hereafter establish the like Commerce
in Ithaca. Do, said he, as you see done here: Receive all Strangers kindly; let
them find safety in your Ports, with Convenience, and entire Liberty. Suffer
not your self to be possessed with Covetousness or Pride. The true way to gain
much, is never to desire to gain too much, and to know how and when to lose:
Acquire the love of all Strangers, and suffer small Wrongs from them. Beware of
exciting their Suspicions by insolent Behavior. Be constant to the rules of
Trade: Let them be plain and easy: Accustom your self to observe them
inviolably: Punish Fraud with Severity: Correct the Negligence and Pride of
Merchants, who ruin Trade by ruining themselves, that carry it on: Above all,
never go about to restrain Trade, or govern it by your own Fancy. The Prince
must not intermedle with it, for fear of discouraging his People, who as they
have the Pains, ought to have the Profit. He will find sufficient Advantages by
the vast Riches that will be brought into his Kingdom. Commerce is like certain
Springs; if you force them to alter their Course, you dry them up.

It Is only Profit and Convenience that invites Strangers. If you render their
Trade uneasy and of little Benefit, they insensibly withdraw themselves and
return no more; because other Nations taking advantage of your Imprudence,
invite 'em thither, and accustom them to live without you. I must own that for
some time past the Glory of Tire has been sadly diminished. O! if you had seen
[...]
Voyage, than the Salentines. Telemachus advances toward 'em upon this craggy
Shore. He asks the first he meets with, whether he had not seen Ulysses King of
Ithaca in the Palace.

This Person to whom he accidentally addressed himself, was not a Pheacian, but
an unknown Stranger, who had a majestic Air, but sad and dejected; he feem'd
to be deeply musing; and scarce heard Telemachus his Question at first; but at
length he thus answered. You are not mistaken, Ulysses has been recieved by the
King, as he ought to be in a place where Jupiter is feared, and Hospitality
exercised; but he is not here now, and therefore it is to no purpose for you to
seek him here; he is gone to see Ithaca again, if the appeased Deities will at
last suffer him once again to Salute his domestic Gods. This Stranger had
scarce pronounced these Words with a melancholy Tone, but he threw himself into
a little thick Wood that was on the top of a Rock, from whence he viewed the
Sea with a sad Aspect; flying from all the Men he saw, and seeming troubled
that he could not get away. Telemachus looked intently on him, and the more he
looked, the more he was moved and astonished. This unknown Person, said he to
Mentor, has answered me, like one that cannot hear a Man speak to him without
Pain; and seems full of Grief and Anguish. I bewail the Unfortunate, since I am
so my self; and I find my Heart strongly engaged to this Man, though I know not
why. He has treated me rudely enough, and yet I cannot choose but desire he may
see the end of his Troubles. Mentor replied smiling, you see what the Miseries
of this Life serve for; they render Princes Moderate, and sensible of other
Men's Afflictions; when they have never tasted any thing but the sweet Poison
of Prosperity, they are ready to believe themselves Gods; they would have the
Mountains become Plains to satisfy their Humor; they make no Account of Men;
they would even sport with whole Nature; when they hear any one speak of
Suffering, they know not what it means; it is a mere Dream to 'em; they have
never seen the distance between Good and Evil. But Misfortunes alone may give
'em Humanity, and change their Hearts of Flint into Hearts of Flesh; for then
they feel they are but Men themselves, and that they ought to treat other Men
kindly who are like themselves. If a Stranger moves your pity so much, because
you find him wandering on this Shore like your self; how much more Compassion
ought you to have for the People of Ithaca, if ye shall hereafter see 'em
suffer? That People whom the Gods will commit to you, as a Flock to a Shepherd,
will perhaps become Miserable by your Ambition, or Pride, or Imprudence; for
the People seldom suffer but by the Faults of their Kings, whose Duty it is to
watch over 'em, to secure 'em from Misery.

While Mentor was Speaking thus, Telemachus was overwhelmed with Trouble, and
at last replied. If all this be true, the Condition of a King is very
Miserable. He is a Slave to all those he seems to Command; he is not so much
made to Command 'em, as he is made for them; he owes himself entirely to 'em;
he is loaded with all their Cares; he is the Man to whom all the People
together, and every one in particular, has a Right; he must accommodate himself
to their Weaknesses, Correct 'em like a Father, render 'em wise and happy; the
Authority he seems to have is not his own; he can do nothing, either for his
own Glory, or his own Pleasure, his Authority is that of the Laws, he must obey
them to give a good Example to his Subjects: In a Word, he is only the Defender
of the Laws, to make them Reign; he must Watch and Labor to maintain 'em. He
has the least Liberty and Tranquillity of any Man in his Kingdom. It Is very
true, replied Mentor, a King is made King only to take care of his People, as a
Shepherd does of his Flock, or as a Father does of his Family. But, my dear
Telemachus, don't think it hard for him to go through some Trouble to be in a
capacity to do good to so many People. He Reforms ill Men by Punishments,
encourages good Men by Rewards; he represents the Gods, in thus leading all
sorts of Men to Virtue; has he not Glory enough in causing the Laws to be
observed? That of setting himself above the Laws, is but a false Glory, that
produces nothing but Horror and Contempt. If he be given to Vice, he cannot but
be miserable; for he can find no Tranquillity in his Thoughts, no real
Satisfaction; if he be good, he tastes the most pure and solid of all Pleasures
in laboring for Virtue, thereby expecting an eternal Recompense from the Gods.

Telemachus opposed to these Reasons, Man's Ingratitude. What, said he, to take
so much Pains to gain the Love of those Men, who perhaps will never love you,
and to show Kindness to such vile Persons as will perhaps turn the Favors you
confer on 'em against you, to do you a Mischief? Mentor answered, You must
expect to meet with Ingratitude from Men, and yet not cease to do 'em good: You
ought to serve 'em not so much for their own sake, as out of love to the Gods
who command it: The good you do is never lost; if Men forget it, the Gods
remember and reward it: Besides, if the Multitude be ungrateful, there are
always some virtuous Men that will be affected with your Virtue; nay, the very
Multitude, as changeable as they are, do not fail to do some kind of Justice to
Virtue: But would you hinder Men from being ungrateful? Do not endeavor only
to make 'em powerful, rich, and formidable by Arms, and happy by Pleasures;
this Glory and this Plenty corrupt 'em, they will be but the more wicked, and
consequently the more ungrateful; but apply your self to inform their Manners,
and to inspire 'em with Justice, Sincerity, the fear of the Gods, Humanity,
Fidelity, Moderation, and Disinteressedness: In making 'em good, you will hinder
'em from becoming ungrateful: You Will give 'em the true Good, which is Virtue;
which if it be solid, will always engage 'em to him who has inspired 'em with
it. It is to be wondered at, that Men should be ungrateful to such Princes as
never showed 'em the way to any thing but Injustice, Ambition, and Jealousy,
Inhumanity, Pride, and Treachery, against their Neighbors? A Prince ought to
expect nothing of 'em, but what himself has taught 'em. But if on the contrary
he has labored both by his Example and Authority, to make 'em good, he will find
the Fruit of his Labor in their Virtues, or at least he will find enough to
consolate him in his own, and in the Friendship of the Gods. During this
Discourse, Telemachus often turned his Eyes toward the Sea, which began to be
agitated; the Winds stirred up the Waves, and beat 'em against the Rocks, which
were whitened with their Foam. The Ship Sails were immediately swelled with
Wind; a confused Noise of the Seamen was heard on the Shore, occasioned by the
warmth and impatience they were in to put to Sea. That unknown Person with whom
Telemachus had spoken, had been sometime in the midst of the Island, climbing
up to the Tops of the Rocks, and thence viewing all the immense spaces of the
Sea, with a profound dejection of Mind: Telemachus had not lost sight of him,
but continually observed his Motions. In fine, this Man seeing the Vessel he
belonged to ready to sail, descended from those craggy Rocks with as much speed
and agility, as Apollo in the Forests of Lycia, when he has tied up his white
Locks, traverses the Precipices with his Arrows to pierce the Stags and wild
Boars. This unknown Person soon gets aboard the Vessel, which cuts the brackish
Waters, and flies from the Land. A secret Impression of Sorrow seizes the Heart
of Telemachus; he afflicts himself without knowing for what Reason. The Tears
run down from his Eyes, and nothing seems so pleasant to him as Weeping: At the
same time he perceives all the Mariners of Salentum lying upon the Grass, and
in a sound sleep. They were weary and dispirited; and sweet Sleep had
insinuated it self into all their Limbs; the Poppies of the Night were by the
Power of Minerva strewn upon 'em in the middle of the Day. Telemachus was
amazed to see this universal Drowziness of the Salentines; while the Phenicians
were so diligent to make their advantage of a favorable Wind: But he was yet
more engaged in viewing the Phenician Ship, ready to disappear in the midst of
the Waves, than in going toward the Salentines to waken 'em. Something or
other there was that held his Eyes fixed on the Vessel that was already parted,
of which he could now see nothing but the Sails, whose Whiteness he could just
distinguish from the azure Sky. He is so intent, that he does not so much as
hear Mentor speak to him. He is transported beyond himself, in an Ecstasy like
that of the Menades, at the Feast of Bacchus, when they hold the Thyrsus in
their hands, and make their frantic Cries echo on the Banks of the Hebre, and
on Mount Rhodopus and Ismarus.

At last he recovered himself a little from this sort of Enchantment, and the
Tears again began to flow from his Eyes. Upon this, says Mentor to him; I don't
wonder, my dear Telemachus, to see you Weep; the cause of your Sorrow, though
unknown to your self, is not unknown to Mentor. It Is Nature that speaks, and
makes her self felt; it is she that melts your Heart. The Stranger who gave you
such a lively Emotion, is no other than the great Ulysses; he is going to
Ithaca, and is already very near the Harbor, and at last sees again that so
long desired Place. Your Eyes have seen him, as it was formerly predicted to
you, but without knowing who he was. You shall soon see him and know him, and
he shall know you; but now the Gods did not think fit to permit you to know one
another out of Ithaca. His Heart was moved no less than yours; but he is too
Wise to discover himself to any Mortal, in a Place where he might be exposed to
Treachery, and to the Pursuits of Penelope's Lovers. Ulysses, of all Men, his
Heart is like a deep Well, there is no drawing any of his Secrets out of it. He
loves Truth, and never speaks any thing that stifles it; but he does not speak
it but on those occasions, when Convenience and Wisdom require it. He keeps his
Lips always closed up as it were with a Seal, from uttering any useless Word.
How often was he moved in speaking to you? How often did he put a restraint on
himself, that he might not discover himself to you? And what has he not
suffered in seeing you? It was this that rendered him so sad and dejected.

During this Discourse, Telemachus was so melted and troubled, that he could
not hinder a Torrent of Tears from gushing out; his Sighs prevented him for a
time from returning an Answer, At last he cried out, Alas! my dear Mentor, I
found something powerful (which I cannot tell how to utter) in that Stranger
which attracted me to him, and made an Emotion in all my Bowels: Why did you
not tell me before he went away, that it was Ulysses, seeing you knew him? Why
did you let him go without speaking to him, and without signifying that you
knew him? What is the Mystery of this? Shall I always be Unhappy? Will the
provoked Gods hold me still in suspense like thirsty Tantalus, who is amused
and flattered by the deceitful Water, which still glides away from his Lips? O
Ulysses, Ulysses! have you escaped me for ever? Perhaps I shall never see you
more: Perhaps Penelope's Lovers will take him by the Ambushes they prepared for
me. If I had followed him, I had at least died with him. O Ulysses! O Ulysses!
if no Storm dashes you again against some Rock, (for I have every thing to fear
from adverse Fortune) I tremble lest when you arrive at Ithaca, your Lot should
be as fatal as that of Agamemnon at Mycene. But why, dear Mentor, did you envy
my Happiness? I should now have been embracing him, I should have been already
with him in the Port of Ithaca; and we should have fought together to conquer
all our Enemies.

Says Mentor, smiling; It Is to exercise your Patience that the Gods hold you
thus in suspense: You look upon this time as lost; but know that it is the most
useful part of your whole Life; for it exercises you in that Virtue, which of
all others is the most necessary for such as are to Govern. You must be
Patient, if you would become Master of your self, and of others. Impatience,
which seems to be the force and vigor of the Soul, is but a Weakness: He that
knows not how to wait and suffer, is like him that knows not how to keep a
Secret in his Breast; both of 'em want strength and firmness of Mind to
restrain themselves; as a Man who runs along in a Chariot, and has not a hand
strong enough to stop his fiery Coursers when he should; so that they no longer
obey the Bridle, but run down a Precipice, and the weak Man that cannot check
'em is dashed in pieces by the Fall. Thus an impatient Man is hurried along, by
his wild and furious Desires into an Abyss of Miseries; the greater his Power
is, the more fatal is his Impatience to him; he will wait for nothing, he will
not give himself Time to take any Measures; he forces all Things, to satisfy
his Wishes: He breaks the Boughs to gather the Fruit before it is Ripe: He
breaks down the Gates rather than to wait till they are opened; he will needs
Reap, when the wise Husbandman is Sowing. All he does in haste is ill done;
and can have no longer duration than his volatile Desires. Such as these, such
as these are the senseless Projects of that Man who thinks he is able to do
every Thing; and who gives himself up to his Desires to abuse his Power. It Is
to teach you to be Patient, my dear Telemachus, that the Gods exercise your
Patience so much. The Good you hope for shows it self to you, and flies from
you like a fleeting Dream which vanishes as soon as a Man awakes; to show you
that the very Things you think you possess in your Hands, may escape you in an
Instant. The wisest Lessons you can have from the Mouth of Ulysses, will not be
so useful to you as his long absence, and the Troubles you undergo in seeking
him.

Telemachus heard all this with a Mind full of Anguish; he looked upon the Sea,
but could no longer see the (...) Ship: Then he turned his Eyes, flowing with
Tears, toward Mentor who was speaking to him; when all on a sudden he percieved
Mentor take a new Form. The Wrinkles of his Forehead vanished, as the Shades of
Night disappear when Aurora with her rosy Fringes opens the Gates of the East,
and inflames the whole Horizon: His hollow and austere Eyes became Blew and
full of heavenly Sweetness, and shined with a divine Flame; his gray and
neglected Beard disappeared; and noble and majestic Lineaments mixed with
Sweetness and Grace presented themselves to Telemachus his wondering Eyes. He
saw a Woman's Countenance with a Complexion finer than that of a tender Flower
when newly Blown before the Sun. He saw the white of Lillies mixed with the red
of blooming Roses, and an eternal Youth with a simple and unaffected Majesty
flourishing on this heavenly Countenance. The sweet Scent of Ambrosia spread it
self from the flowing Hairs of this glorious Person, whose Garments shined like
those lively Colors with which the rising Sun paints the gloomy Arches of
Heaven, and the Clouds when he has been gilding them. This Deity did not set a
Foot upon the Ground, but lightly glided along through the Air, as a Bird
cleaves it with its Wings. In her Hand she held a glittering Spear, capable of
making the most warlike Cities and Nations tremble. Mars himself would have
been Terrified at it; her Voice was sweet and moderate, but strong and
insinuating; all her Words were so many Darts of Fire, that pierced the Heart
of Telemachus, and made him feel a strange kind of delicious Sorrow. Upon her
Helmet appeared the mournful Bird of Athens; and on her Breast there shined a
formidable Breast Plate. By these Marks Telemachus knew it was Minerva.

O Goddess, says he, it is you then your self who have daign'd to conduct the
Son of Ulysses for his Father's sake. He would have added more, but his Voice
failed him; his Lips in vain endeavored to express those Thoughts, that came
with Impetuosity from his Mouth, and from the very bottom of his Heart. The
Presence of a Deity overwhelmed him; so that he was like a Man in a Dream,
oppressed to that degree, that he loses Respiration, and cannot form a Voice by
all the troublesome Agitation of his Lips.

In fine, Minerva pronounced these Words; O Son of Ulysses, hearken to me this
last time! I never instructed any Mortal with so much Wisdom as I have done
you: I have led you by the Hand through Shipwracks, unknown Countries, Bloody
Wars, and all the hard Adventures that can terrify the Heart of Man; I have by
sensible Experiences, shown you the true and false Maxims by which you may
Reign. Your Faults have been no less useful to you than your Misfortunes; for
where is the Man who can govern wisely, if he has never suffered any Hardship,
or has never gained any thing by his Sufferings, into which his Faults have
precipitated him? You, as well as your Father have filled Sea and Land with
your terrible Adventures. Go, you are now worthy to follow his Steps; there
remains nothing more but an Easy passage for you into Ithaca, where your
Father is this very moment arriving: Go, fight under him with as much Obedience
as the meanest of his Subjects; and thereby give others a good Example. He Will
procure Antiope for your Bride, and you shall be happy with her, for having
sought her for her Wisdom and Virtue more than for her Beauty. When you come to
Reign, make it all your Glory to renew the Golden Age: Hear every body, believe
very few, have a care of believing your self too much; be afraid of imposing on
your self; but never fear to let others see you have been mistaken. Love your
People, forget nothing that may engage 'em to love you. Fear is necessary when
Love is wanting, but it always should be made use of with regret, as violent
and dangerous Remedies are; always consider at a distance, all the Consequences
of what you are about to undertake. Endeavor to foresee all, the most terrible
Incoveniencies; and know, that true Courage consists in discovering all
Dangers, and in despising them, when they become unavoidable. He that is not
willing to see them, has not Courage enough calmly to forbear the sight of 'em.
He that takes a view of them, and avoids all that can be avoided; and breaks
through all the rest without a troublesome Emotion of Mind, is the only Wise
and Magnanimous Man. Avoid Luxury, Pride, and Profusion; let your Glory consist
in sincerity; let your Virtues, and good Works, be the Ornament of the Person,
and of the Palace; let 'em be the Guard to surround you; and let all the World
learn from you, wherein true Happiness consists. Never forget that Kings do not
Reign for their own own Glory, but for the Good of the People: The Good they
do, reaches even to the remotest Ages, and the Evil they do, multiplies from
Generation to Generation, even to the latest Posterity. Fear the Gods,
Telemachus, this Fear is the greatest. Treasure of the Heart of Man; it will be
attended with Wisdom, Justice, Peace, Joy, refined Pleasures, true Liberty,
sweet Plenty, and spotless Glory.

I now leave you, O Son of Ulysses; but my Wisdom shall never leave you,
provided you always remain sensible, that you can do nothing without it; it is
time for you now to go alone. I parted from you in Phoenicia, and at Salentum,
only to use you to be without the Pleasure of my Company; as they wean
Children, when it is time to deprive 'em of Milk, to feed 'em with solid
Aliment. No sooner had the Goddess finished this Discourse, but she mounted
into the Air, and wrapped her self in a Cloud of Gold and Azure, in which she
disappeared. Telemachus sighed, was struck with Wonder, and in an Ecstasy,
prostrated himself on the Ground; he lifted up his Hands to Heaven, and
recovering himself, went to his Company and awakened them, hastened away, and
arrived at Ithaca, where he found his Father with the Faithful Eumenia.

FINIS.

